data_image0
_chemical_formula_structural       YOY2OYOYO4YO2YO2YO2YO2YO2Y3OY2OYO2Y2O2YO2YOYOYOYO2YO3YO2YO2YO4YO2YOYO
_chemical_formula_sum              "Y30 O45"
_cell_length_a       4.741
_cell_length_b       9.482
_cell_length_c       40.2985
_cell_angle_alpha    150.0
_cell_angle_beta     59.99999999999999
_cell_angle_gamma    119.99999999999999

_space_group_name_H-M_alt    "P 1"
_space_group_IT_number       1

loop_
  _space_group_symop_operation_xyz
  'x, y, z'

loop_
  _atom_site_type_symbol
  _atom_site_label
  _atom_site_symmetry_multiplicity
  _atom_site_fract_x
  _atom_site_fract_y
  _atom_site_fract_z
  _atom_site_occupancy
  Y   Y1        1.0  0.003161558631599988  0.00483701375763936  0.031038576641965052  1.0000
  O   O1        1.0  0.515083057640415  0.9965213634925606  0.02882367834363181  1.0000
  Y   Y2        1.0  0.02222291590034335  0.5005565176613437  0.028232576732348472  1.0000
  Y   Y3        1.0  0.7220218915268874  0.3779949824993952  0.08706551161027287  1.0000
  O   O2        1.0  0.7124247268305522  0.6081264206972726  0.0839027843484872  1.0000
  Y   Y4        1.0  0.7055371961079188  0.8814884446708448  0.08902459527317971  1.0000
  O   O3        1.0  0.1972630297817377  0.8891515082350472  0.09191659272203245  1.0000
  Y   Y5        1.0  0.0007468795061935707  0.987919070503842  0.14348025571649192  1.0000
  O   O4        1.0  0.49712897089577585  0.9905835581282223  0.14416785050772454  1.0000
  O   O5        1.0  0.5008612118348995  0.24378521373478113  0.14632617064777212  1.0000
  O   O6        1.0  0.004958311774800013  0.2611600088845892  0.14702492228673725  1.0000
  O   O7        1.0  0.49618145656042667  0.7443041200297764  0.14399240671788735  1.0000
  Y   Y6        1.0  0.711036678360417  0.36132247632284126  0.20254632213225918  1.0000
  O   O8        1.0  0.22447934809863557  0.6408991809413017  0.206312781996048  1.0000
  O   O9        1.0  0.7179998091434444  0.6201031988534703  0.20216872041535808  1.0000
  Y   Y7        1.0  0.7058212384435499  0.8913641735250116  0.20853754745882883  1.0000
  O   O10       1.0  0.2105044379686818  0.8770067377889483  0.20669636096924895  1.0000
  O   O11       1.0  0.7088842167028585  0.1361416028344946  0.20741871220827593  1.0000
  Y   Y8        1.0  0.01814398691724786  0.9983122726047878  0.2625980033286313  1.0000
  O   O12       1.0  0.4968957481737452  0.010570550949337051  0.26715617807940845  1.0000
  O   O13       1.0  0.49592566294745904  0.23916926404389494  0.2619270792166427  1.0000
  Y   Y9        1.0  0.9897456687925048  0.5168388223998174  0.2681123768898711  1.0000
  O   O14       1.0  0.5046613862384178  0.5092812215575212  0.2656142106117524  1.0000
  O   O15       1.0  0.9924640423279529  0.7656859125688411  0.2685689988005407  1.0000
  Y   Y10       1.0  0.732378167550528  0.37145739055700944  0.31694934688147514  1.0000
  O   O16       1.0  0.22800173171511995  0.38280852340952365  0.3227783891695851  1.0000
  O   O17       1.0  0.2075180106830019  0.620871985627313  0.3229776575987238  1.0000
  Y   Y11       1.0  0.7319867638811717  0.889354779835657  0.3222276623471908  1.0000
  Y   Y12       1.0  0.9866726792446174  0.00497103567831522  0.3846521745329231  1.0000
  Y   Y13       1.0  0.9992627113723876  0.501274635373972  0.3836421250009055  1.0000
  O   O18       1.0  0.5082605236750051  0.4997424329680046  0.3805895807251144  1.0000
  Y   Y14       1.0  0.7151811134265962  0.3696806618746923  0.43750053154315266  1.0000
  Y   Y15       1.0  0.7229362764216495  0.886534555496127  0.44118931415703605  1.0000
  O   O19       1.0  0.20794354076773502  0.8725939252905646  0.4401199275252087  1.0000
  Y   Y16       1.0  0.8509249453107852  0.18615095415946206  0.4995948955316899  1.0000
  O   O20       1.0  0.3745299125862389  0.20546558969267073  0.5004384904981072  1.0000
  O   O21       1.0  0.8650385140382936  0.42517312999437784  0.49518058490765654  1.0000
  Y   Y17       1.0  0.8545067849843818  0.7144143779372947  0.5061869732661992  1.0000
  Y   Y18       1.0  0.9998735888182726  0.001531743450634343  0.558736343182648  1.0000
  O   O22       1.0  0.49319947686527593  0.013551444690945156  0.560712174278473  1.0000
  O   O23       1.0  0.0001303346976216412  0.25676243566285933  0.5623469552478799  1.0000
  Y   Y19       1.0  0.9846120637115232  0.5227790961570755  0.5643253395379355  1.0000
  O   O24       1.0  0.4859153513613096  0.7474256020529848  0.5590738256894275  1.0000
  O   O25       1.0  0.9851176076804424  0.7411593086756668  0.5589957403730932  1.0000
  Y   Y20       1.0  0.7116670249989827  0.37972238637567673  0.6153377230385217  1.0000
  O   O26       1.0  0.23042455564531017  0.6273072069897764  0.6168381306305855  1.0000
  Y   Y21       1.0  0.7188847515500825  0.8793999141200509  0.6182183743785022  1.0000
  O   O27       1.0  0.2218791394848907  0.12673121978358504  0.6181108072877931  1.0000
  Y   Y22       1.0  0.009859954257893027  0.9939149415697616  0.6733637150046771  1.0000
  O   O28       1.0  0.9886858135838973  0.25578199718910816  0.6772165304325516  1.0000
  Y   Y23       1.0  0.0060479828955433326  0.49614707731102403  0.6747625568763644  1.0000
  O   O29       1.0  0.5055960839661496  0.4955211030402402  0.6746763378432603  1.0000
  O   O30       1.0  0.5248338014060288  0.7424398509529193  0.6734783680017393  1.0000
  Y   Y24       1.0  0.7177221071911657  0.38586654063670645  0.7372710534005151  1.0000
  O   O31       1.0  0.2236183142931789  0.6383499415560037  0.7377138482641663  1.0000
  O   O32       1.0  0.22397533325485175  0.9065365898852374  0.7400583295837222  1.0000
  O   O33       1.0  0.7127523353407255  0.12251154259806785  0.7330599069017582  1.0000
  Y   Y25       1.0  0.8493929798612536  0.19497182357324724  0.7949745251290721  1.0000
  O   O34       1.0  0.3670466699742103  0.44760073231320424  0.7941503041642907  1.0000
  O   O35       1.0  0.367647678066221  0.7146888908365557  0.800949949018881  1.0000
  Y   Y26       1.0  0.7216548872354772  0.3702915077409798  0.8502513948925231  1.0000
  O   O36       1.0  0.22059965973676143  0.3897998465357611  0.8547345454401304  1.0000
  O   O37       1.0  0.22439569555707561  0.6270320968142244  0.8508142681698898  1.0000
  Y   Y27       1.0  0.6979056518059401  0.8896902417282221  0.8550922100286897  1.0000
  O   O38       1.0  0.2125759866446515  0.8788334299491773  0.853376158380416  1.0000
  O   O39       1.0  0.21662232415699956  0.130866304792987  0.85332729081802  1.0000
  O   O40       1.0  0.4929721911028754  0.9961776159410144  0.91266336737496  1.0000
  O   O41       1.0  0.010499336059229444  0.26583426966893603  0.9144115610537381  1.0000
  Y   Y28       1.0  0.9787782517458447  0.4988054663324924  0.9130583300101713  1.0000
  O   O42       1.0  0.5012079568481742  0.5369165855568707  0.9214416867254882  1.0000
  O   O43       1.0  0.011115978376333498  0.7652789823519149  0.9141608907221306  1.0000
  Y   Y29       1.0  0.7217363775149693  0.38963512840511894  0.9724945530909995  1.0000
  O   O44       1.0  0.20956662640854562  0.3792025756437597  0.9693691382026927  1.0000
  Y   Y30       1.0  0.7367513586778104  0.882621859007641  0.9658981888837738  1.0000
  O   O45       1.0  0.21655125173411838  0.12094263174356135  0.9694028748204934  1.0000
