data_image0
_chemical_formula_structural       YOYO2YO3YO2YO3YO3YOYO2YOYOYOYO2YO2Y2O2YOY2OY3O2YO2YO2YO2YO3YO3YOYOY2O
_chemical_formula_sum              "Y30 O45"
_cell_length_a       4.741
_cell_length_b       9.482
_cell_length_c       40.2985
_cell_angle_alpha    150.0
_cell_angle_beta     59.99999999999999
_cell_angle_gamma    119.99999999999999

_space_group_name_H-M_alt    "P 1"
_space_group_IT_number       1

loop_
  _space_group_symop_operation_xyz
  'x, y, z'

loop_
  _atom_site_type_symbol
  _atom_site_label
  _atom_site_symmetry_multiplicity
  _atom_site_fract_x
  _atom_site_fract_y
  _atom_site_fract_z
  _atom_site_occupancy
  Y   Y1        1.0  0.003161558631599988  0.00483701375763936  0.031038576641965052  1.0000
  O   O1        1.0  0.515083057640415  0.24652136349256054  0.02882367834363181  1.0000
  Y   Y2        1.0  0.02222291590034335  0.5005565176613437  0.028232576732348472  1.0000
  O   O2        1.0  0.5037883787338037  0.4930948030396448  0.028241982198508164  1.0000
  O   O3        1.0  0.9941912140374686  0.7232262412375222  0.02507925493672251  1.0000
  Y   Y3        1.0  0.7055371961079187  0.38148844467084464  0.08902459527317971  1.0000
  O   O4        1.0  0.1972630297817375  0.3891515082350471  0.09191659272203245  1.0000
  O   O5        1.0  0.21898039229927702  0.8728192499635925  0.08465672630472723  1.0000
  O   O6        1.0  0.7153624836888596  0.1254837375879727  0.08534432109595984  1.0000
  Y   Y4        1.0  0.0008612118348995359  0.9937852137347812  0.14632617064777212  1.0000
  O   O7        1.0  0.5049583117748  0.011160008884589243  0.14702492228673725  1.0000
  O   O8        1.0  0.4961814565604268  0.24430412002977647  0.14399240671788735  1.0000
  Y   Y5        1.0  0.9928031655673335  0.4764222968630909  0.14372279272049449  1.0000
  O   O9        1.0  0.5062458353055518  0.5059990014815515  0.1474892525842833  1.0000
  O   O10       1.0  0.49976629635036074  0.7352030193937199  0.1433451910035934  1.0000
  O   O11       1.0  0.20582123844355005  0.3913641735250117  0.20853754745882883  1.0000
  Y   Y6        1.0  0.7105044379686817  0.8770067377889483  0.20669636096924895  1.0000
  O   O12       1.0  0.20888421670285862  0.1361416028344946  0.20741871220827593  1.0000
  O   O13       1.0  0.5181439869172478  0.9983122726047878  0.2625980033286313  1.0000
  O   O14       1.0  0.9968957481737453  0.260570550949337  0.26715617807940845  1.0000
  Y   Y7        1.0  0.995925662947459  0.489169264043895  0.2619270792166427  1.0000
  O   O15       1.0  0.4897456687925047  0.7668388223998174  0.2681123768898711  1.0000
  Y   Y8        1.0  0.7228948990315012  0.3941814010172714  0.32443774002351705  1.0000
  O   O16       1.0  0.21069755512103683  0.4005860920285916  0.3273925282123054  1.0000
  O   O17       1.0  0.2323781675505281  0.6214573905570094  0.31694934688147514  1.0000
  Y   Y9        1.0  0.7280017317151196  0.8828085234095238  0.3227783891695851  1.0000
  O   O18       1.0  0.7075180106830018  0.12087198562731283  0.3229776575987238  1.0000
  Y   Y10       1.0  0.013753251088088192  0.004454600375906689  0.3810511917589555  1.0000
  O   O19       1.0  0.48667267924461777  0.25497103567831525  0.3846521745329231  1.0000
  Y   Y11       1.0  0.9992627113723876  0.501274635373972  0.3836421250009055  1.0000
  O   O20       1.0  0.508260523675005  0.7497424329680045  0.3805895807251144  1.0000
  Y   Y12       1.0  0.7151811134265962  0.3696806618746923  0.43750053154315266  1.0000
  O   O21       1.0  0.2229362764216496  0.6365345554961273  0.44118931415703605  1.0000
  O   O22       1.0  0.7079435407677352  0.6225939252905648  0.4401199275252087  1.0000
  Y   Y13       1.0  0.7100417017073268  0.8786010438893362  0.44077136611992507  1.0000
  O   O23       1.0  0.23364666898278008  0.897915679422545  0.44161496108634235  1.0000
  O   O24       1.0  0.7241552704348356  0.1176232197242526  0.4363570554958917  1.0000
  Y   Y14       1.0  0.8545067849843818  0.2144143779372948  0.5061869732661992  1.0000
  Y   Y15       1.0  0.8589903452148142  0.6939818331805098  0.49991281377088337  1.0000
  O   O25       1.0  0.3523162332618175  0.7060015344208208  0.5018886448667084  1.0000
  O   O26       1.0  0.8592470910941634  0.9492125253927348  0.5035234258361153  1.0000
  Y   Y16       1.0  0.9846120637115233  0.022779096157075428  0.5643253395379355  1.0000
  O   O27       1.0  0.4859153513613093  0.9974256020529847  0.5590738256894275  1.0000
  Y   Y17       1.0  0.9851176076804422  0.49115930867566676  0.5589957403730932  1.0000
  Y   Y18       1.0  0.7116670249989827  0.37972238637567673  0.6153377230385217  1.0000
  O   O28       1.0  0.23042455564530995  0.3773072069897763  0.6168381306305855  1.0000
  Y   Y19       1.0  0.7188847515500825  0.8793999141200509  0.6182183743785022  1.0000
  Y   Y20       1.0  0.00364562669180679  0.9918310403238341  0.6769343366995577  1.0000
  Y   Y21       1.0  0.009859954257892937  0.4939149415697616  0.6733637150046771  1.0000
  O   O29       1.0  0.4886858135838972  0.5057819971891082  0.6772165304325516  1.0000
  O   O30       1.0  0.5060479828955433  0.7461470773110238  0.6747625568763644  1.0000
  Y   Y22       1.0  0.7238295967592333  0.38042128249999074  0.733499867255025  1.0000
  O   O31       1.0  0.24306731419911176  0.3773400304126702  0.7323018974135042  1.0000
  O   O32       1.0  0.7177221071911658  0.6358665406367063  0.7372710534005151  1.0000
  Y   Y23       1.0  0.7236183142931792  0.8883499415560037  0.7377138482641663  1.0000
  O   O33       1.0  0.22397533325485175  0.9065365898852374  0.7400583295837222  1.0000
  O   O34       1.0  0.21275233534072546  0.12251154259806785  0.7330599069017582  1.0000
  Y   Y24       1.0  0.8493929798612536  0.19497182357324724  0.7949745251290721  1.0000
  O   O35       1.0  0.36704666997421054  0.19760073231320419  0.7941503041642907  1.0000
  O   O36       1.0  0.8676476780662212  0.4646888908365557  0.800949949018881  1.0000
  Y   Y25       1.0  0.8625381308389355  0.6778414180111035  0.7914278654807582  1.0000
  O   O37       1.0  0.3614829033402196  0.9473497568058862  0.7959110160283657  1.0000
  O   O38       1.0  0.8652789391605331  0.9345820070843489  0.7919907387581251  1.0000
  O   O39       1.0  0.1979056518059401  0.639690241728222  0.8550922100286897  1.0000
  Y   Y26       1.0  0.7125759866446514  0.8788334299491773  0.853376158380416  1.0000
  O   O40       1.0  0.21662232415699956  0.8808663047929869  0.85332729081802  1.0000
  O   O41       1.0  0.21120570389595938  0.13107779540076514  0.8538398379631954  1.0000
  O   O42       1.0  0.7287328488523137  0.15073444912868728  0.8555880316419735  1.0000
  Y   Y27       1.0  0.9787782517458451  0.9988054663324922  0.9130583300101713  1.0000
  O   O43       1.0  0.5012079568481734  0.03691658555687057  0.9214416867254882  1.0000
  Y   Y28       1.0  0.011115978376333966  0.5152789823519149  0.9141608907221306  1.0000
  O   O44       1.0  0.0035028647218855536  0.7547349489453684  0.9136710236792348  1.0000
  Y   Y29       1.0  0.7095666264085455  0.3792025756437597  0.9693691382026927  1.0000
  Y   Y30       1.0  0.7367513586778104  0.882621859007641  0.9658981888837738  1.0000
  O   O45       1.0  0.21655125173411838  0.8709426317435612  0.9694028748204934  1.0000
