data_image0
_chemical_formula_structural       YOYO2YO2YO2YO3YO2YO2Y3OYO2YO2YO2YOYOYOYO2YOYO2YO2YOYO2YOYOYOYO3Y2O3YOYOYO2YO
_chemical_formula_sum              "Y32 O48"
_cell_length_a       75.856
_cell_length_b       4.741
_cell_length_c       4.741
_cell_angle_alpha    74.99999999999999
_cell_angle_beta     59.99999999999999
_cell_angle_gamma    119.99999999999999

_space_group_name_H-M_alt    "P 1"
_space_group_IT_number       1

loop_
  _space_group_symop_operation_xyz
  'x, y, z'

loop_
  _atom_site_type_symbol
  _atom_site_label
  _atom_site_symmetry_multiplicity
  _atom_site_fract_x
  _atom_site_fract_y
  _atom_site_fract_z
  _atom_site_occupancy
  Y   Y1        1.0  0.9997116752441304  0.9910326470600751  0.260736030452526  1.0000
  O   O1        1.0  0.0011183501293357265  0.499781515517511  0.24611896559534704  1.0000
  Y   Y2        1.0  0.06424115094012768  0.014625163648827181  0.24221803226770242  1.0000
  O   O2        1.0  0.0943361829923748  0.9995939586575681  0.24228010297721161  1.0000
  O   O3        1.0  0.0634310540882751  0.49609802609410064  0.2214079078313316  1.0000
  Y   Y3        1.0  0.12397071913237497  0.9841320534253906  0.2552089372189005  1.0000
  O   O4        1.0  0.1538397557518305  0.9663192395835459  0.27429447008895935  1.0000
  O   O5        1.0  0.12611558375562298  0.5168443830973619  0.2263834945123101  1.0000
  Y   Y4        1.0  0.18818408267387754  0.0142943184779691  0.23092122776465343  1.0000
  O   O6        1.0  0.21902266620332622  0.495965780863104  0.245164909062965  1.0000
  O   O7        1.0  0.18782002065051254  0.5227084867425016  0.24977627114378775  1.0000
  Y   Y5        1.0  0.2506772673810216  0.023745824896497077  0.22976339886715083  1.0000
  O   O8        1.0  0.28179665680861044  0.9910716426800114  0.22798410033716404  1.0000
  O   O9        1.0  0.2815117972822479  0.5070657845592013  0.2528405861416781  1.0000
  O   O10       1.0  0.2510946405939059  0.5129599660418072  0.22549214448064495  1.0000
  Y   Y6        1.0  0.31093113694938823  0.9825025344635708  0.2675227686536024  1.0000
  O   O11       1.0  0.3430237919053972  0.9748855275202022  0.2553719884789085  1.0000
  O   O12       1.0  0.34270676467177796  0.48487794910972687  0.2601390944532397  1.0000
  Y   Y7        1.0  0.37676361415354764  0.020778397277025656  0.236089201281788  1.0000
  O   O13       1.0  0.40532409080041515  0.9930635510449325  0.26617055355543556  1.0000
  O   O14       1.0  0.40682537123431173  0.5101803933488644  0.23166148499948172  1.0000
  Y   Y8        1.0  0.4358415981072437  0.9946431631407449  0.2724809200582263  1.0000
  Y   Y9        1.0  0.5000200226489492  0.008154053383476205  0.2559944481787916  1.0000
  Y   Y10       1.0  0.5608751053283728  0.9871049852865661  0.27549436410145356  1.0000
  O   O15       1.0  0.5965994797897036  0.5485143440832111  0.2065753266256027  1.0000
  Y   Y11       1.0  0.6258348411056713  0.004422536931987458  0.24504367943650163  1.0000
  O   O16       1.0  0.6557450878642987  0.9782660759817728  0.2463587373580776  1.0000
  O   O17       1.0  0.6574984054988383  0.5238257412633553  0.24140919667601385  1.0000
  Y   Y12       1.0  0.6859802707135878  0.9835955202880824  0.2651736281157231  1.0000
  O   O18       1.0  0.7183188454469636  0.9877767173784044  0.25850787758010035  1.0000
  O   O19       1.0  0.6885429913913456  0.5196909342124342  0.2383628272668528  1.0000
  Y   Y13       1.0  0.7509072132207866  0.0116829684552857  0.225740899944055  1.0000
  O   O20       1.0  0.7815400864045356  0.00312157965097096  0.2500847602250182  1.0000
  O   O21       1.0  0.7496724619041804  0.4874942513726559  0.24302741869083466  1.0000
  Y   Y14       1.0  0.8121090148795246  0.992043756834488  0.2473265416783794  1.0000
  O   O22       1.0  0.8445823469168947  0.021006406719758886  0.2528937870668427  1.0000
  Y   Y15       1.0  0.8768096497216752  0.020670995170495768  0.21819461054646871  1.0000
  O   O23       1.0  0.9041138528014877  0.4730330291402642  0.29083049301618985  1.0000
  Y   Y16       1.0  0.9375181414764769  0.004062540099348808  0.24942462063986903  1.0000
  O   O24       1.0  0.9677608366923688  0.005461206822163572  0.2624639783820451  1.0000
  Y   Y17       1.0  0.0438453073679694  0.7429508513389047  0.7732525999070542  1.0000
  O   O25       1.0  0.07353448001546331  0.7523141799210061  0.7863088072741946  1.0000
  O   O26       1.0  0.07518454152003815  0.2617834576010234  0.7516518126032523  1.0000
  Y   Y18       1.0  0.10640800630934148  0.750145638125547  0.75113649407413  1.0000
  O   O27       1.0  0.1389189783563406  0.2859070859495252  0.7347597016206733  1.0000
  Y   Y19       1.0  0.17089315831962504  0.763883794091135  0.7446615355341779  1.0000
  O   O28       1.0  0.20100964731762908  0.7522532137335295  0.7537703566467312  1.0000
  O   O29       1.0  0.20122892642012608  0.24814841932542575  0.7530604752302442  1.0000
  Y   Y20       1.0  0.23393385220605156  0.7932314105981975  0.7294964095872325  1.0000
  O   O30       1.0  0.26270964796988827  0.27281671974017696  0.7549227928366848  1.0000
  O   O31       1.0  0.2332777755652282  0.2816665745063187  0.7387279677038192  1.0000
  Y   Y21       1.0  0.2957752851599243  0.7814025962168285  0.7381589712854485  1.0000
  O   O32       1.0  0.3285854712645623  0.7889674388204672  0.7302530539421404  1.0000
  Y   Y22       1.0  0.3567671289556184  0.7490796874186723  0.7630466478521806  1.0000
  O   O33       1.0  0.38825338085788863  0.248972573008037  0.7659688412753658  1.0000
  O   O34       1.0  0.35632540741953245  0.2584808293513976  0.781441080127227  1.0000
  Y   Y23       1.0  0.4202143707060426  0.7706245524564153  0.7352554840133109  1.0000
  O   O35       1.0  0.4502759124891741  0.26502499644097877  0.7556549062938667  1.0000
  Y   Y24       1.0  0.4828754596023554  0.7797274314841512  0.7502155182605994  1.0000
  O   O36       1.0  0.5121319960880577  0.7359876945093264  0.7950892941446315  1.0000
  Y   Y25       1.0  0.5459068573715659  0.7714047967991344  0.7322489764844683  1.0000
  O   O37       1.0  0.5757518066484222  0.7590497619354794  0.7618352118290838  1.0000
  Y   Y26       1.0  0.6084100299117189  0.7784360991617466  0.7359636189165095  1.0000
  O   O38       1.0  0.6367265981812921  0.7547321304175327  0.7641955940154895  1.0000
  O   O39       1.0  0.6381560718215114  0.2526824710502147  0.752870632386343  1.0000
  O   O40       1.0  0.6071735644600171  0.2573081863997144  0.752548134360365  1.0000
  Y   Y27       1.0  0.6691819299266601  0.7518579710136709  0.7559306530380979  1.0000
  Y   Y28       1.0  0.7322551980786317  0.7711390038391981  0.7674677337270128  1.0000
  O   O41       1.0  0.761926834969143  0.7525878574813628  0.758537181048613  1.0000
  O   O42       1.0  0.7608246166664903  0.23274653839425707  0.8138625514824913  1.0000
  O   O43       1.0  0.7323686124414682  0.27290082085454337  0.7658134525811762  1.0000
  Y   Y29       1.0  0.7945391141499418  0.7574260629412323  0.7625806096362924  1.0000
  O   O44       1.0  0.7947120535395975  0.27237459187805757  0.7419546548634011  1.0000
  Y   Y30       1.0  0.8599478578823848  0.8189862174084863  0.7190483700245901  1.0000
  O   O45       1.0  0.8888885156306444  0.7554681215147059  0.7421772972893877  1.0000
  Y   Y31       1.0  0.9215688443844136  0.7827029517584589  0.732135393672659  1.0000
  O   O46       1.0  0.9515617274731024  0.2862897294432327  0.7378935044572226  1.0000
  O   O47       1.0  0.9206161288458788  0.27768291043655924  0.7391991277238181  1.0000
  Y   Y32       1.0  0.985804703135001  0.800293893748989  0.7164314076873732  1.0000
  O   O48       1.0  0.9815195248922068  0.25215518715069685  0.7641298628936025  1.0000
