data_image0
_chemical_formula_structural       YO3YO2YOYOYOYOY2O3YOYOY2O2YO2YO2YO2YOYOYO2Y2OYO3Y2O2YO2YOYOYO3YO3YO2YO2Y2O2
_chemical_formula_sum              "Y32 O48"
_cell_length_a       4.741
_cell_length_b       18.964
_cell_length_c       21.3345
_cell_angle_alpha    74.99999999999999
_cell_angle_beta     150.0
_cell_angle_gamma    119.99999999999999

_space_group_name_H-M_alt    "P 1"
_space_group_IT_number       1

loop_
  _space_group_symop_operation_xyz
  'x, y, z'

loop_
  _atom_site_type_symbol
  _atom_site_label
  _atom_site_symmetry_multiplicity
  _atom_site_fract_x
  _atom_site_fract_y
  _atom_site_fract_z
  _atom_site_occupancy
  Y   Y1        1.0  0.019052447558540426  0.00044550708903288554  0.058871582935530194  1.0000
  O   O1        1.0  0.5093385613930647  0.9989739137083538  0.054356824198993056  1.0000
  O   O2        1.0  0.5107044701010507  0.12670837965305998  0.05315194668126194  1.0000
  O   O3        1.0  0.9923618066260762  0.12296611537970659  0.053171118401492905  1.0000
  Y   Y2        1.0  0.9518707527785075  0.24186759452210913  0.04672434360051167  1.0000
  O   O4        1.0  0.49501366915540956  0.24733686706095423  0.05716443497470613  1.0000
  O   O5        1.0  0.5149888715591973  0.3726609802951009  0.06305936512029178  1.0000
  Y   Y3        1.0  0.9657910113008215  0.49829962729699795  0.048261148263885154  1.0000
  O   O6        1.0  0.9688896088899653  0.8737979551853676  0.04966271356069852  1.0000
  Y   Y4        1.0  0.7119380857406556  0.1902312590361071  0.16517325678833467  1.0000
  O   O7        1.0  0.7228606732713649  0.3230712096466674  0.1665975637504472  1.0000
  Y   Y5        1.0  0.6844618519249694  0.4433211043395427  0.16041620717599286  1.0000
  O   O8        1.0  0.17844993992708136  0.4347071809890626  0.159866636953677  1.0000
  Y   Y6        1.0  0.7286838293605332  0.6949275655113157  0.16754403577088384  1.0000
  O   O9        1.0  0.6817246130532596  0.8145554981443879  0.15909694894967535  1.0000
  Y   Y7        1.0  0.7317574884940847  0.9424618631404774  0.1720789073346908  1.0000
  Y   Y8        1.0  0.8593390070282872  0.09129109395539604  0.2794370186824809  1.0000
  O   O10       1.0  0.3647747970020021  0.09498245788588658  0.280909430110897  1.0000
  O   O11       1.0  0.35667073490298806  0.22293761979408133  0.273481162782982  1.0000
  O   O12       1.0  0.8799472793059631  0.2235385982579029  0.2827723610715085  1.0000
  Y   Y9        1.0  0.8278987458748465  0.5941798132143685  0.2721135783216849  1.0000
  O   O13       1.0  0.3821374615444668  0.7255130547293874  0.28472143789216947  1.0000
  Y   Y10       1.0  0.8726507991171387  0.8497640338618915  0.2796292772101434  1.0000
  O   O14       1.0  0.38931617121534434  0.8493828081224437  0.28565219744986164  1.0000
  Y   Y11       1.0  0.9498698127352838  0.0012589174356070645  0.375476351870416  1.0000
  Y   Y12       1.0  0.0024321425287049986  0.24986501322791219  0.3873580349326554  1.0000
  O   O15       1.0  0.4838948987776141  0.24365507130744088  0.3877642156056222  1.0000
  O   O16       1.0  0.0010376107945626006  0.37880606370089925  0.3862354557448339  1.0000
  Y   Y13       1.0  0.009131859112994937  0.49969700441093984  0.3935755527827541  1.0000
  O   O17       1.0  0.5118556094856349  0.4990737937428899  0.3915167088383421  1.0000
  O   O18       1.0  0.9910358129084156  0.6270098225039591  0.3852945265610947  1.0000
  Y   Y14       1.0  0.9610405988639847  0.7468484252190052  0.38139600403216506  1.0000
  O   O19       1.0  0.5048282211081382  0.750801611319996  0.3889150686979101  1.0000
  O   O20       1.0  0.9793895919803647  0.8701282498189181  0.38673527441913375  1.0000
  Y   Y15       1.0  0.7060845939636841  0.18979183321002724  0.4991742515045094  1.0000
  O   O21       1.0  0.23792989536340214  0.3234260378223144  0.5008938012227051  1.0000
  O   O22       1.0  0.6770786611313263  0.3146566032219524  0.4901763000091107  1.0000
  Y   Y16       1.0  0.7740586185932683  0.44592866400914577  0.5126112750311446  1.0000
  O   O23       1.0  0.7172554563460856  0.5683217010357206  0.4998222831315071  1.0000
  Y   Y17       1.0  0.7298814932214495  0.6969352609413488  0.5038497369918087  1.0000
  O   O24       1.0  0.25278108242865627  0.6915580917827656  0.5071820081256612  1.0000
  Y   Y18       1.0  0.7565879001702568  0.9471670347978152  0.5112146663133881  1.0000
  O   O25       1.0  0.20659378741746237  0.06585933108099273  0.5005101937669786  1.0000
  O   O26       1.0  0.3459165408533995  0.21659584150818206  0.6114621389405923  1.0000
  Y   Y19       1.0  0.8299924070324478  0.3464369139905899  0.6064038548371742  1.0000
  Y   Y20       1.0  0.8634060942152444  0.5934096278729477  0.6094622247360243  1.0000
  O   O27       1.0  0.36534867219735956  0.7177820198915206  0.6122756575352402  1.0000
  Y   Y21       1.0  0.8672923322313321  0.8415781302412402  0.6120563971462151  1.0000
  O   O28       1.0  0.3386284102007864  0.8469505358462169  0.6047781868988361  1.0000
  O   O29       1.0  0.3550890204542907  0.9732113637200954  0.6126316093906731  1.0000
  O   O30       1.0  0.8484804895601611  0.9713700863397813  0.607629529358211  1.0000
  Y   Y22       1.0  0.7063031494456105  0.1923867106331793  0.7185648950938999  1.0000
  Y   Y23       1.0  0.7138389576068586  0.4422989840876522  0.7161230020226989  1.0000
  O   O31       1.0  0.23703304644424228  0.5655356398735069  0.7262519277717756  1.0000
  O   O32       1.0  0.747254525472058  0.5662403181036492  0.7271545028383901  1.0000
  Y   Y24       1.0  0.7705127116885394  0.697490252047156  0.7319333983425667  1.0000
  O   O33       1.0  0.19092830392967008  0.6889654252135683  0.7176680977781331  1.0000
  O   O34       1.0  0.7168798212911278  0.8176717337303526  0.7239688476797945  1.0000
  Y   Y25       1.0  0.726482424789773  0.9449858044383861  0.722288789139687  1.0000
  O   O35       1.0  0.7935031577008201  0.07028326491692471  0.7361489090538668  1.0000
  Y   Y26       1.0  0.836264030344142  0.09218287986278964  0.8278505918060655  1.0000
  O   O36       1.0  0.37900074081603785  0.09649987801018901  0.8369888638058469  1.0000
  Y   Y27       1.0  0.844503050556243  0.3448705209019246  0.828997929834393  1.0000
  O   O37       1.0  0.3598004423447003  0.34601129949352627  0.837717912777153  1.0000
  O   O38       1.0  0.35770818432877927  0.4676641234414613  0.8342199827921858  1.0000
  O   O39       1.0  0.8612771777862058  0.46873982751133975  0.8341203731376808  1.0000
  Y   Y28       1.0  0.8608671778806911  0.5932239549212012  0.8351651284220699  1.0000
  O   O40       1.0  0.3954708827983249  0.6009320700481858  0.8387285754166169  1.0000
  O   O41       1.0  0.3505312796575031  0.7190588688809384  0.8359702042168674  1.0000
  O   O42       1.0  0.9548505919376644  0.7279470817518338  0.853058498067861  1.0000
  Y   Y29       1.0  0.8936389480497564  0.8509584397181968  0.8382176191932689  1.0000
  O   O43       1.0  0.3812407559268214  0.8462805344492077  0.8372190941082484  1.0000
  O   O44       1.0  0.8385415872896391  0.9698547656132878  0.8308483753339798  1.0000
  Y   Y30       1.0  0.6909384377642631  0.19699902434530583  0.9348844443208275  1.0000
  O   O45       1.0  0.20497251223328394  0.18690892271090517  0.9420282537966533  1.0000
  O   O46       1.0  0.7057222061142048  0.31620403245298984  0.9389266207035483  1.0000
  Y   Y31       1.0  0.6983010526917146  0.4435420447020785  0.9407051228327079  1.0000
  Y   Y32       1.0  0.7060494857709724  0.6917171516706194  0.9411083894328827  1.0000
  O   O47       1.0  0.198879340116918  0.6916708892620275  0.9340761456855966  1.0000
  O   O48       1.0  0.23545913370761618  0.9415756553262178  0.9488087215799892  1.0000
