data_image0
_chemical_formula_structural       YO2YOYOY2OYOYO2YOY3O6YOYO2YOY2O2YO2Y2OYO2YO2YOYO2YOYO5YO2YO2YO2YOYOYO2YO
_chemical_formula_sum              "Y32 O48"
_cell_length_a       42.669
_cell_length_b       4.741
_cell_length_c       9.482
_cell_angle_alpha    59.99999999999999
_cell_angle_beta     75.0
_cell_angle_gamma    119.99999999999999

_space_group_name_H-M_alt    "P 1"
_space_group_IT_number       1

loop_
  _space_group_symop_operation_xyz
  'x, y, z'

loop_
  _atom_site_type_symbol
  _atom_site_label
  _atom_site_symmetry_multiplicity
  _atom_site_fract_x
  _atom_site_fract_y
  _atom_site_fract_z
  _atom_site_occupancy
  Y   Y1        1.0  0.9996792245878132  0.9893064296758427  0.130368015226263  1.0000
  O   O1        1.0  0.05747439789039654  0.0004055365733138423  0.12305948279767352  1.0000
  O   O2        1.0  0.0029563526040301876  0.5158764052545984  0.12110901613385121  1.0000
  Y   Y2        1.0  0.22312640738380213  0.0008352200813455677  0.12114005148860581  1.0000
  O   O3        1.0  0.22336662444643304  0.5006952714886048  0.1107039539156658  1.0000
  Y   Y3        1.0  0.3315965596762559  0.9832945224570869  0.12760446860945024  1.0000
  O   O4        1.0  0.3850380371510161  0.9624129972536903  0.13714723504447968  1.0000
  Y   Y4        1.0  0.44600578954000664  0.020641617327270316  0.11319174725615505  1.0000
  Y   Y5        1.0  0.556430855382746  0.01736194281529737  0.11546061388232672  1.0000
  O   O5        1.0  0.6115094708911569  0.4967432020959108  0.1225824545314825  1.0000
  Y   Y6        1.0  0.6672315952943053  0.022744459501954566  0.12488813557189388  1.0000
  O   O6        1.0  0.7230647210636605  0.526999613419897  0.11488169943357542  1.0000
  Y   Y7        1.0  0.7783562924224476  0.9946115198157512  0.11399205016858202  1.0000
  O   O7        1.0  0.8338494985223754  0.006609054373788879  0.12642029307083905  1.0000
  O   O8        1.0  0.7792859663894144  0.5169005180395723  0.11274607224032247  1.0000
  Y   Y8        1.0  0.8864128477675292  0.9796850957460218  0.1337613843268012  1.0000
  O   O9        1.0  0.9432493797807833  0.9740217799795079  0.12768599423945426  1.0000
  Y   Y9        1.0  0.09378391431107488  0.36814789091479183  0.3800695472266199  1.0000
  Y   Y10       1.0  0.15389976700457117  0.9079152565489395  0.368044600640894  1.0000
  Y   Y11       1.0  0.20521135876685162  0.37536371080620246  0.3830852767777178  1.0000
  O   O10       1.0  0.2628193439747456  0.8980291731814326  0.3658307424997409  1.0000
  O   O11       1.0  0.20402188584705766  0.8759286960894174  0.38624046002911316  1.0000
  O   O12       1.0  0.37337788332632865  0.3920904016859972  0.3779972240893958  1.0000
  O   O13       1.0  0.37080195685587064  0.8679059946939881  0.3877471820507267  1.0000
  O   O14       1.0  0.488636255211641  0.9403966596699936  0.3532876633128014  1.0000
  O   O15       1.0  0.43018636674108474  0.8901196298092596  0.3725218397182508  1.0000
  Y   Y12       1.0  0.5389391881582941  0.36375172424219765  0.3731793686790388  1.0000
  O   O16       1.0  0.5975233280309569  0.9101072128224494  0.3707045983380069  1.0000
  Y   Y13       1.0  0.6485823127288244  0.3660559730023598  0.3825868140578616  1.0000
  O   O17       1.0  0.7059540269156189  0.8713089381455418  0.3792539387900502  1.0000
  O   O18       1.0  0.6526592787818531  0.9064622232935763  0.3691814136334264  1.0000
  Y   Y14       1.0  0.7633035125168329  0.4004837031926672  0.3628704499720275  1.0000
  O   O19       1.0  0.8181968630263462  0.8880081307427166  0.3750423801125091  1.0000
  Y   Y15       1.0  0.8725283382575477  0.373515533377903  0.37151370934541733  1.0000
  Y   Y16       1.0  0.9836034595905568  0.37737379444816316  0.37366327083918965  1.0000
  O   O20       1.0  0.04143328792061762  0.40544130196080846  0.37644689353342137  1.0000
  O   O21       1.0  0.042550805460424224  0.9106850774297721  0.35909730527323436  1.0000
  Y   Y17       1.0  0.07673557583110459  0.7362683631967122  0.6454152465080949  1.0000
  O   O22       1.0  0.13538125141344956  0.2739554127145196  0.6247123103199345  1.0000
  O   O23       1.0  0.07826788326033175  0.2732575162696622  0.6312319891910226  1.0000
  Y   Y18       1.0  0.18947373785782945  0.73921212850595  0.6366262999535272  1.0000
  Y   Y19       1.0  0.29804329727264434  0.7464761847146204  0.6431544036370973  1.0000
  O   O24       1.0  0.30035758386828737  0.2615178671070473  0.6258259063016262  1.0000
  Y   Y20       1.0  0.4114123149740911  0.7499629043081915  0.6255682470370649  1.0000
  O   O25       1.0  0.46891702302489807  0.7883575324268909  0.6173798508103366  1.0000
  O   O26       1.0  0.4148257973121072  0.2647421513961705  0.622330767767089  1.0000
  Y   Y21       1.0  0.5240845091732933  0.7516469882559546  0.6268851783233655  1.0000
  O   O27       1.0  0.5800172120312218  0.24765633376644547  0.6265302376151222  1.0000
  O   O28       1.0  0.5266272131430118  0.2965281276079168  0.6147482047936162  1.0000
  Y   Y22       1.0  0.6337939877892174  0.7720251971554343  0.6274613964183424  1.0000
  O   O29       1.0  0.6922924454853814  0.28347897418153756  0.6193639838519096  1.0000
  Y   Y23       1.0  0.7478334083870992  0.7833064832917247  0.6190794856427243  1.0000
  O   O30       1.0  0.8060213868920707  0.7921424970248296  0.6151265269710702  1.0000
  O   O31       1.0  0.7455968665127439  0.24698195209387253  0.6315233239260902  1.0000
  Y   Y24       1.0  0.8571801867390167  0.7464049860831045  0.6329844206376829  1.0000
  O   O32       1.0  0.9118068716886572  0.7534255028660024  0.6407205400636136  1.0000
  Y   Y25       1.0  0.969006577814804  0.7729952834198626  0.6176277420066555  1.0000
  O   O33       1.0  0.022813759662221544  0.7641157593077718  0.6278274531469333  1.0000
  O   O34       1.0  0.025115778470845784  0.2796927788842254  0.6251077591302997  1.0000
  O   O35       1.0  0.14913832966933546  0.343837729037939  0.8975446470723157  1.0000
  O   O36       1.0  0.1525043135941396  0.8893587565406399  0.866124488242234  1.0000
  O   O37       1.0  0.09497945575241991  0.8722466306821608  0.8809176059145419  1.0000
  Y   Y26       1.0  0.2081318722587717  0.39579279156401037  0.8679818094582548  1.0000
  O   O38       1.0  0.2589768095315693  0.36754947967778695  0.8820977970077448  1.0000
  O   O39       1.0  0.2613157726653002  0.8673207303503991  0.8764353161931714  1.0000
  Y   Y27       1.0  0.3173411091795434  0.37199829928780404  0.8762740671801824  1.0000
  O   O40       1.0  0.372083077348735  0.8660042178453243  0.8779653265190489  1.0000
  O   O41       1.0  0.3177527780735201  0.8834302345793306  0.8837338668635064  1.0000
  Y   Y28       1.0  0.4258983637142264  0.36631500770332104  0.8792685905243065  1.0000
  O   O42       1.0  0.4804828219666437  0.3375780715020153  0.9069312757412457  1.0000
  O   O43       1.0  0.4290359605625317  0.8854580389989575  0.882906726290588  1.0000
  Y   Y29       1.0  0.5395035413665973  0.37050308118463315  0.8812903048181461  1.0000
  O   O44       1.0  0.5949980567654073  0.8887680017666573  0.8709773274317004  1.0000
  Y   Y30       1.0  0.6550080378451347  0.4390626670641377  0.859524185012295  1.0000
  O   O45       1.0  0.6513157447134098  0.8718257333280385  0.8710886486446939  1.0000
  Y   Y31       1.0  0.7647902613198683  0.4006751741739724  0.8660676968363293  1.0000
  O   O46       1.0  0.9293249236003097  0.40333612075379477  0.8689467522286113  1.0000
  O   O47       1.0  0.9298894068901469  0.8945193741030057  0.869599563861909  1.0000
  Y   Y32       1.0  0.9898178989256812  0.4207911177215877  0.8582157038436865  1.0000
  O   O48       1.0  0.9830519493809927  0.8649831051407801  0.8820649314468012  1.0000
